*SPEF "1481-1998"
*DESIGN "fpAdder"
*DATE "Fri Dec 29 04:17:34 2017"
*VENDOR "Synopsys, Inc."
*PROGRAM "icc_shell"
*VERSION "G-2012.06-ICC-SP2"
*DESIGN_FLOW "PIN_CAP NONE"
*DIVIDER /
*DELIMITER :
*BUS_DELIMITER [ ]
*T_UNIT 1 NS
*C_UNIT 1 FF
*R_UNIT 1 OHM
*L_UNIT 1 HENRY

*NAME_MAP
*1 A[3]
*2 A[2]
*3 A[1]
*4 A[0]
*5 VDD
*6 VSS
*7 A[11]
*8 A[10]
*9 A[9]
*10 A[8]
*11 A[7]
*12 A[6]
*13 A[5]
*14 A[4]
*15 A[19]
*16 A[18]
*17 A[17]
*18 A[16]
*19 A[15]
*20 A[14]
*21 A[13]
*22 A[12]
*23 A[27]
*24 A[26]
*25 A[25]
*26 A[24]
*27 A[23]
*28 A[22]
*29 A[21]
*30 A[20]
*31 B[3]
*32 B[2]
*33 B[1]
*34 B[0]
*35 A[31]
*36 A[30]
*37 A[29]
*38 A[28]
*39 B[11]
*40 B[10]
*41 B[9]
*42 B[8]
*43 B[7]
*44 B[6]
*45 B[5]
*46 B[4]
*47 B[19]
*48 B[18]
*49 B[17]
*50 B[16]
*51 B[15]
*52 B[14]
*53 B[13]
*54 B[12]
*55 B[27]
*56 B[26]
*57 B[25]
*58 B[24]
*59 B[23]
*60 B[22]
*61 B[21]
*62 B[20]
*63 result[3]
*64 result[2]
*65 result[1]
*66 result[0]
*67 B[31]
*68 B[30]
*69 B[29]
*70 B[28]
*71 result[11]
*72 result[10]
*73 result[9]
*74 result[8]
*75 result[7]
*76 result[6]
*77 result[5]
*78 result[4]
*79 result[19]
*80 result[18]
*81 result[17]
*82 result[16]
*83 result[15]
*84 result[14]
*85 result[13]
*86 result[12]
*87 result[27]
*88 result[26]
*89 result[25]
*90 result[24]
*91 result[23]
*92 result[22]
*93 result[21]
*94 result[20]
*95 overFlow
*96 enable
*97 reset
*98 clk
*99 result[31]
*100 result[30]
*101 result[29]
*102 result[28]
*103 n147
*104 U115
*105 U117
*106 sub_79_2/n26
*107 sub_79_2/U35
*108 sub_79_2/U27
*109 n344
*110 sub_79_2/U5
*111 U1115
*112 U16
*113 sll_78_M1_1_7
*114 sll_78_M1_1_6
*115 sll_78_M1_1_5
*116 sll_78_M1_1_4
*117 sll_78_M1_1_3
*118 sll_78_M1_1_2
*119 sll_78_M1_1_15
*120 sll_78_M1_1_14
*121 sll_78_M1_1_13
*122 sll_78_M1_1_12
*123 sll_78_M1_1_11
*124 sll_78_M1_1_10
*125 sll_78_M1_1_9
*126 sll_78_M1_1_8
*127 sll_78_M1_1_22
*128 sll_78_M1_1_21
*129 sll_78_M1_1_20
*130 sll_78_M1_1_19
*131 sll_78_M1_1_18
*132 sll_78_M1_1_17
*133 sll_78_M1_1_16
*134 n148
*135 A_reg_reg_27_
*136 U118
*137 n5190
*138 sub_79_2/U33
*139 U579
*140 sub_79_2/n21
*141 sub_79_2/U25
*142 sub_79_2/U23
*143 sub_79_2/U8
*144 sub_79_2/U3
*145 sub_79_2/U2_5
*146 N201
*147 sub_79_2/U32
*148 add_63/U1
*149 add_63/U1_1_1
*150 U1013
*151 U711
*152 sub_79_2/n20
*153 sub_79_2/U31
*154 n527
*155 U1005
*156 sub_79_2/carry\[1\]
*157 sub_79_2/U14
*158 sub_79_2/U13
*159 sub_79_2/U11
*160 n345
*161 U1113
*162 U14
*163 sll_78_M1_2_7
*164 sll_78_M1_2_6
*165 sll_78_M1_2_5
*166 sll_78_M1_2_4
*167 sll_78_M1_2_15
*168 sll_78_M1_2_14
*169 sll_78_M1_2_13
*170 sll_78_M1_2_12
*171 sll_78_M1_2_11
*172 sll_78_M1_2_10
*173 sll_78_M1_2_9
*174 sll_78_M1_2_8
*175 sll_78_M1_2_22
*176 sll_78_M1_2_21
*177 sll_78_M1_2_20
*178 sll_78_M1_2_19
*179 sll_78_M1_2_18
*180 sll_78_M1_2_17
*181 sll_78_M1_2_16
*182 n149
*183 U120
*184 U119
*185 n150
*186 n151
*187 A_reg_reg_26_
*188 U121
*189 N576
*190 sub_79_2/U28
*191 U741
*192 sub_79_2/n22
*193 sub_79_2/U2_4
*194 N580
*195 sub_79_2/n18
*196 sub_79_2/U26
*197 sub_79_2/U24
*198 sub_79_2/n17
*199 sub_79_2/n19
*200 sub_79_2/carry\[7\]
*201 sub_79_2/U2
*202 N207
*203 add_63/U1_1_6
*204 U713
*205 U545
*206 sub_79_2/carry\[6\]
*207 sub_79_2/U6
*208 sub_79_2/U4
*209 sub_79_2/n15
*210 sub_79_2/U22
*211 sub_79_2/U20
*212 sub_79_2/n14
*213 sub_79_2/U19
*214 sub_79_2/n16
*215 sub_79_2/U21
*216 sub_79_2/carry\[4\]
*217 N204
*218 sub_79_2/U17
*219 add_63/U1_1_3
*220 U705
*221 U546
*222 sub_79_2/carry\[3\]
*223 sub_79_2/U2_2
*224 sub_79_2/U18
*225 n152
*226 U123
*227 U122
*228 sub_79_2/n13
*229 N583
*230 sub_79_2/n9
*231 sub_79_2/U15
*232 sub_79_2/n11
*233 sub_79_2/n10
*234 sub_79_2/carry\[2\]
*235 N202
*236 sub_79_2/U1
*237 U712
*238 U562
*239 sub_79_2/n8
*240 sub_79_2/U12
*241 N581
*242 n153
*243 sub_79_2/n5
*244 sub_79_2/n3
*245 sub_79_2/U7
*246 sub_79_2/n4
*247 N586
*248 sub_79_2/n2
*249 N208
*250 add_63/U2
*251 U1119
*252 U856
*253 sub_79_2/n1
*254 N587
*255 N203
*256 add_63/U1_1_2
*257 U867
*258 U704
*259 N582
*260 N205
*261 add_63/U1_1_4
*262 U868
*263 U706
*264 sub_79_2/carry\[5\]
*265 N584
*266 N206
*267 add_63/U1_1_5
*268 U869
*269 U707
*270 N585
*271 A_reg\[23\]
*272 sub_55/U35
*273 sub_52/U2_0
*274 A_reg_reg_23_
*275 U1090
*276 sub_55/n25
*277 sub_55/U27
*278 sub_55/U14
*279 A_reg\[24\]
*280 sub_55/U34
*281 sub_52/U29
*282 sub_52/U28
*283 sub_52/U25
*284 U1177
*285 A_reg_reg_24_
*286 sub_55/n24
*287 sub_55/U19
*288 sub_55/U17
*289 sub_55/U15
*290 A_reg\[25\]
*291 sub_55/U33
*292 sub_52/U23
*293 sub_52/U22
*294 sub_52/U19
*295 U1179
*296 A_reg_reg_25_
*297 sub_55/n23
*298 sub_55/U2_2
*299 A_reg\[26\]
*300 sub_55/U32
*301 sub_52/U11
*302 sub_52/U10
*303 sub_52/U7
*304 sub_55/n22
*305 sub_55/U5
*306 sub_55/U3
*307 sub_55/U1
*308 A_reg\[27\]
*309 sub_55/U31
*310 sub_52/U2_4
*311 U1181
*312 U838
*313 sub_55/n21
*314 sub_55/U11
*315 sub_55/U9
*316 sub_55/U7
*317 A_reg\[28\]
*318 sub_55/U30
*319 sub_52/U17
*320 sub_52/U16
*321 sub_52/U13
*322 A_reg_reg_28_
*323 sub_55/n20
*324 sub_55/U2_5
*325 A_reg\[29\]
*326 sub_55/U29
*327 sub_52/U5
*328 sub_52/U4
*329 sub_52/U2
*330 A_reg_reg_29_
*331 sub_55/n19
*332 sub_55/U25
*333 sub_55/U23
*334 sub_55/U22
*335 A_reg\[30\]
*336 sub_55/U28
*337 sub_52/U2_7
*338 U1183
*339 A_reg_reg_30_
*340 sub_55/n18
*341 sub_55/U2_7
*342 n146
*343 U116
*344 N169
*345 srl_55/U173
*346 srl_55/U170
*347 srl_55/U69
*348 srl_55/U68
*349 srl_55/U1
*350 sub_55/n15
*351 sub_55/U26
*352 sub_55/n16
*353 sub_55/U24
*354 sub_55/n17
*355 sub_55/carry\[7\]
*356 B_reg\[29\]
*357 sub_52/U32
*358 U1182
*359 U1175
*360 U836
*361 B_reg_reg_29_
*362 sub_55/carry\[6\]
*363 sub_55/U21
*364 sub_55/n14
*365 N175
*366 srl_55/U174
*367 srl_55/U5
*368 srl_55/U4
*369 sub_55/n11
*370 sub_55/U20
*371 sub_55/n12
*372 sub_55/U18
*373 sub_55/n13
*374 sub_55/carry\[2\]
*375 B_reg\[24\]
*376 sub_52/U37
*377 U1178
*378 U1087
*379 B_reg_reg_24_
*380 sub_55/carry\[1\]
*381 sub_55/U16
*382 sub_55/n10
*383 N170
*384 srl_55/U66
*385 srl_55/U65
*386 srl_55/U64
*387 srl_55/U172
*388 srl_55/U171
*389 srl_55/U67
*390 sub_55/carry\[3\]
*391 sub_55/U4
*392 sub_55/U2
*393 n144
*394 U112
*395 U114
*396 sub_55/n6
*397 sub_55/U12
*398 sub_55/n7
*399 sub_55/U10
*400 sub_55/n8
*401 sub_55/carry\[5\]
*402 B_reg\[27\]
*403 sub_52/U34
*404 U1180
*405 B_reg_reg_27_
*406 sub_55/carry\[4\]
*407 sub_55/U8
*408 sub_55/U6
*409 sub_55/n5
*410 N173
*411 srl_55/U154
*412 srl_55/U56
*413 sub_55/n2
*414 sub_55/n3
*415 sub_55/n4
*416 B_reg\[26\]
*417 sub_52/U35
*418 B_reg_reg_26_
*419 sub_55/n1
*420 N172
*421 srl_55/U58
*422 B_reg\[25\]
*423 sub_52/U36
*424 B_reg_reg_25_
*425 N171
*426 srl_55/U161
*427 srl_55/U127
*428 srl_55/U81
*429 srl_55/U2
*430 B_reg\[28\]
*431 sub_52/U33
*432 B_reg_reg_28_
*433 N174
*434 B_reg\[30\]
*435 sub_52/U31
*436 U1184
*437 B_reg_reg_30_
*438 N176
*439 srl_55/U148
*440 srl_55/U101
*441 srl_55/U90
*442 srl_55/U82
*443 srl_55/U18
*444 srl_55/n143
*445 srl_55/n97
*446 srl_55/U159
*447 srl_55/U146
*448 srl_55/U133
*449 srl_55/U130
*450 srl_55/U109
*451 srl_55/U95
*452 srl_55/U84
*453 n145
*454 srl_55/n98
*455 srl_55/U156
*456 srl_55/U143
*457 srl_55/U121
*458 srl_55/U103
*459 srl_55/U87
*460 srl_55/U29
*461 srl_55/n100
*462 srl_55/U169
*463 srl_55/U160
*464 srl_55/U147
*465 srl_55/U136
*466 srl_55/U125
*467 srl_55/U108
*468 srl_55/U93
*469 srl_55/n101
*470 srl_55/U104
*471 srl_55/U110
*472 srl_55/U122
*473 srl_55/U131
*474 srl_55/U145
*475 srl_55/U85
*476 srl_55/U88
*477 srl_55/U96
*478 srl_55/U139
*479 srl_55/U144
*480 srl_55/U151
*481 srl_55/U157
*482 srl_55/U163
*483 srl_55/U167
*484 srl_55/U123
*485 srl_55/U132
*486 srl_55/U134
*487 A_reg\[21\]
*488 srl_55/U37
*489 A_reg_reg_21_
*490 A_reg\[20\]
*491 srl_55/U38
*492 A_reg_reg_20_
*493 srl_55/n11
*494 srl_55/n148
*495 srl_55/U168
*496 srl_55/n40
*497 srl_55/U34
*498 srl_55/n9
*499 srl_55/U166
*500 srl_55/U138
*501 srl_55/U124
*502 srl_55/U107
*503 srl_55/U92
*504 srl_55/n7
*505 srl_55/U162
*506 srl_55/U150
*507 srl_55/n41
*508 srl_55/U36
*509 srl_55/n87
*510 srl_55/U79
*511 srl_55/U17
*512 A_reg\[17\]
*513 srl_55/U52
*514 A_reg_reg_17_
*515 srl_55/n5
*516 A_reg\[16\]
*517 srl_55/U44
*518 A_reg_reg_16_
*519 srl_55/n12
*520 srl_55/U59
*521 srl_55/U165
*522 srl_55/U158
*523 srl_55/U152
*524 srl_55/U142
*525 srl_55/U129
*526 srl_55/U116
*527 srl_55/U80
*528 srl_55/n147
*529 srl_55/n44
*530 srl_55/U39
*531 srl_55/n8
*532 srl_55/U135
*533 srl_55/n45
*534 srl_55/U40
*535 srl_55/n88
*536 srl_55/U24
*537 srl_55/n18
*538 srl_55/U126
*539 srl_55/U100
*540 srl_55/n19
*541 n143
*542 U113
*543 srl_55/n66
*544 srl_55/U164
*545 srl_55/U71
*546 srl_55/n3
*547 srl_55/U140
*548 srl_55/U115
*549 srl_55/U113
*550 srl_55/U111
*551 srl_55/U89
*552 srl_55/U57
*553 srl_55/n128
*554 srl_55/U153
*555 srl_55/U117
*556 A_reg\[5\]
*557 srl_55/U54
*558 A_reg_reg_5_
*559 srl_55/n6
*560 A_reg\[4\]
*561 srl_55/U51
*562 A_reg_reg_4_
*563 srl_55/n146
*564 srl_55/n10
*565 srl_55/n56
*566 srl_55/U48
*567 srl_55/n57
*568 srl_55/U46
*569 srl_55/n92
*570 srl_55/U155
*571 srl_55/U32
*572 srl_55/n1
*573 srl_55/n105
*574 srl_55/U106
*575 srl_55/U28
*576 srl_55/U27
*577 A_reg\[9\]
*578 srl_55/U55
*579 A_reg_reg_9_
*580 A_reg\[8\]
*581 srl_55/U49
*582 A_reg_reg_8_
*583 srl_55/n145
*584 srl_55/n52
*585 srl_55/U41
*586 srl_55/n53
*587 srl_55/U42
*588 srl_55/n91
*589 srl_55/U21
*590 srl_55/n141
*591 srl_55/U60
*592 srl_55/n107
*593 A_reg\[13\]
*594 srl_55/U53
*595 A_reg_reg_13_
*596 A_reg\[12\]
*597 srl_55/U43
*598 A_reg_reg_12_
*599 srl_55/n144
*600 srl_55/n48
*601 srl_55/U47
*602 srl_55/n49
*603 srl_55/U45
*604 srl_55/n89
*605 srl_55/U15
*606 srl_55/n104
*607 srl_55/U6
*608 srl_55/n142
*609 srl_55/n90
*610 srl_55/n2
*611 srl_55/U141
*612 srl_55/U105
*613 srl_55/U94
*614 srl_55/U86
*615 srl_55/n137
*616 srl_55/n95
*617 srl_55/U149
*618 srl_55/U102
*619 srl_55/U91
*620 srl_55/U83
*621 srl_55/U63
*622 A_reg\[1\]
*623 A_reg_reg_1_
*624 A_reg\[0\]
*625 A_reg_reg_0_
*626 srl_55/n140
*627 srl_55/n60
*628 srl_55/U50
*629 srl_55/n61
*630 srl_55/U35
*631 srl_55/n139
*632 srl_55/n138
*633 N177
*634 U1118
*635 A_reg\[11\]
*636 A_reg_reg_11_
*637 A_reg\[10\]
*638 A_reg_reg_10_
*639 srl_55/n136
*640 srl_55/n50
*641 srl_55/n51
*642 srl_55/n116
*643 srl_55/U20
*644 A_reg\[22\]
*645 A_reg_reg_22_
*646 IBA
*647 U837
*648 U740
*649 srl_55/n78
*650 srl_55/U119
*651 srl_55/U98
*652 srl_55/U12
*653 A_reg\[19\]
*654 A_reg_reg_19_
*655 A_reg\[18\]
*656 A_reg_reg_18_
*657 srl_55/n135
*658 srl_55/n42
*659 srl_55/n43
*660 srl_55/n76
*661 srl_55/U75
*662 srl_55/U26
*663 srl_55/n25
*664 srl_55/n127
*665 srl_55/U137
*666 srl_55/n15
*667 srl_55/n126
*668 srl_55/U114
*669 srl_55/U112
*670 srl_55/U7
*671 srl_55/n14
*672 srl_55/n64
*673 srl_55/U128
*674 srl_55/U70
*675 A_reg\[15\]
*676 A_reg_reg_15_
*677 A_reg\[14\]
*678 A_reg_reg_14_
*679 srl_55/n134
*680 srl_55/n46
*681 srl_55/n47
*682 srl_55/n77
*683 srl_55/U14
*684 srl_55/n23
*685 srl_55/U74
*686 srl_55/n62
*687 srl_55/U97
*688 srl_55/U78
*689 srl_55/U76
*690 srl_55/U72
*691 srl_55/U120
*692 srl_55/U118
*693 srl_55/U99
*694 srl_55/n26
*695 srl_55/n65
*696 N187
*697 U775
*698 srl_55/n133
*699 srl_55/n69
*700 srl_55/U73
*701 srl_55/U13
*702 srl_55/n132
*703 srl_55/n106
*704 srl_55/U19
*705 srl_55/n73
*706 srl_55/U10
*707 srl_55/n131
*708 srl_55/n71
*709 srl_55/U25
*710 srl_55/n30
*711 srl_55/n109
*712 srl_55/n27
*713 srl_55/n28
*714 N188
*715 U773
*716 srl_55/n68
*717 srl_55/U77
*718 srl_55/U8
*719 srl_55/n22
*720 srl_55/n13
*721 N189
*722 U788
*723 srl_55/n130
*724 srl_55/n82
*725 srl_55/U16
*726 srl_55/n38
*727 srl_55/n83
*728 srl_55/U11
*729 srl_55/n129
*730 srl_55/n81
*731 srl_55/U23
*732 srl_55/n31
*733 srl_55/n33
*734 N190
*735 U772
*736 N191
*737 U787
*738 N192
*739 U770
*740 N193
*741 U797
*742 srl_55/n63
*743 srl_55/n122
*744 N194
*745 U782
*746 srl_55/n114
*747 N195
*748 U798
*749 N196
*750 U784
*751 A_reg\[6\]
*752 A_reg_reg_6_
*753 srl_55/n125
*754 srl_55/n55
*755 srl_55/n85
*756 srl_55/U30
*757 srl_55/n124
*758 srl_55/n84
*759 srl_55/U22
*760 srl_55/n123
*761 srl_55/n118
*762 A_reg\[2\]
*763 A_reg_reg_2_
*764 srl_55/n121
*765 srl_55/n59
*766 srl_55/n120
*767 srl_55/n119
*768 N178
*769 U776
*770 N197
*771 U799
*772 N198
*773 U786
*774 N199
*775 U800
*776 N200
*777 A_reg\[7\]
*778 A_reg_reg_7_
*779 srl_55/n117
*780 srl_55/n54
*781 srl_55/n79
*782 srl_55/U33
*783 srl_55/n115
*784 srl_55/n110
*785 A_reg\[3\]
*786 A_reg_reg_3_
*787 srl_55/n113
*788 srl_55/n58
*789 srl_55/n112
*790 srl_55/n111
*791 N179
*792 U834
*793 srl_55/n102
*794 srl_55/n108
*795 srl_55/n74
*796 srl_55/U31
*797 srl_55/n103
*798 srl_55/n93
*799 srl_55/n99
*800 srl_55/n96
*801 srl_55/n94
*802 N180
*803 U779
*804 srl_55/n72
*805 srl_55/n70
*806 srl_55/n86
*807 srl_55/n20
*808 srl_55/n21
*809 N181
*810 U792
*811 srl_55/n32
*812 srl_55/n80
*813 srl_55/n34
*814 srl_55/n35
*815 N182
*816 U778
*817 srl_55/n24
*818 srl_55/n75
*819 srl_55/n36
*820 N183
*821 U794
*822 srl_55/n29
*823 srl_55/n67
*824 srl_55/n37
*825 N184
*826 U781
*827 N185
*828 U795
*829 N186
*830 U790
*831 srl_55/n16
*832 srl_55/n4
*833 B_reg\[23\]
*834 sub_52/U38
*835 B_reg_reg_23_
*836 U1176
*837 sub_52/n28
*838 sub_52/n27
*839 sub_52/U27
*840 sub_52/n26
*841 sub_52/U21
*842 sub_52/n25
*843 sub_52/U9
*844 sub_52/n24
*845 sub_52/n23
*846 sub_52/U15
*847 sub_52/n22
*848 sub_52/U3
*849 sub_52/n21
*850 sub_52/n19
*851 sub_52/U30
*852 sub_52/n18
*853 sub_52/n20
*854 sub_52/carry\[2\]
*855 sub_52/U20
*856 sub_52/carry\[1\]
*857 sub_52/U26
*858 sub_52/n17
*859 N138
*860 srl_52/U73
*861 srl_52/U72
*862 srl_52/U71
*863 srl_52/U180
*864 srl_52/U179
*865 srl_52/U178
*866 srl_52/U177
*867 srl_52/U76
*868 srl_52/U75
*869 srl_52/U74
*870 sub_52/n14
*871 sub_52/U24
*872 sub_52/n15
*873 sub_52/n16
*874 sub_52/carry\[3\]
*875 sub_52/U8
*876 sub_52/n13
*877 N139
*878 srl_52/U168
*879 srl_52/U135
*880 srl_52/U88
*881 srl_52/U2
*882 sub_52/n11
*883 sub_52/U18
*884 sub_52/n10
*885 sub_52/n12
*886 sub_52/carry\[6\]
*887 sub_52/U1
*888 sub_52/carry\[5\]
*889 sub_52/U14
*890 sub_52/n9
*891 N142
*892 srl_52/U181
*893 srl_52/U14
*894 srl_52/U9
*895 sub_52/n6
*896 sub_52/U12
*897 sub_52/n7
*898 sub_52/n8
*899 sub_52/carry\[4\]
*900 sub_52/n5
*901 N140
*902 srl_52/U15
*903 sub_52/n2
*904 sub_52/U6
*905 sub_52/n3
*906 sub_52/n4
*907 sub_52/carry\[7\]
*908 sub_52/n1
*909 N143
*910 srl_52/U10
*911 srl_52/U11
*912 srl_52/U8
*913 N137
*914 srl_52/U1
*915 N141
*916 srl_52/U162
*917 srl_52/U19
*918 srl_52/U18
*919 N144
*920 srl_52/U156
*921 srl_52/U109
*922 srl_52/U98
*923 srl_52/U89
*924 srl_52/U32
*925 srl_52/n150
*926 srl_52/n104
*927 srl_52/U166
*928 srl_52/U154
*929 srl_52/U141
*930 srl_52/U138
*931 srl_52/U117
*932 srl_52/U103
*933 srl_52/U91
*934 n142
*935 srl_52/n105
*936 srl_52/U163
*937 srl_52/U151
*938 srl_52/U129
*939 srl_52/U111
*940 srl_52/U95
*941 srl_52/U41
*942 srl_52/n107
*943 srl_52/U176
*944 srl_52/U167
*945 srl_52/U155
*946 srl_52/U144
*947 srl_52/U133
*948 srl_52/U116
*949 srl_52/U101
*950 srl_52/n108
*951 srl_52/U112
*952 srl_52/U118
*953 srl_52/U130
*954 srl_52/U139
*955 srl_52/U153
*956 srl_52/U92
*957 srl_52/U96
*958 srl_52/U104
*959 srl_52/U147
*960 srl_52/U152
*961 srl_52/U159
*962 srl_52/U164
*963 srl_52/U170
*964 srl_52/U174
*965 srl_52/U131
*966 srl_52/U140
*967 srl_52/U142
*968 B_reg\[21\]
*969 srl_52/U49
*970 B_reg_reg_21_
*971 B_reg\[20\]
*972 srl_52/U50
*973 B_reg_reg_20_
*974 srl_52/n19
*975 srl_52/n155
*976 srl_52/U175
*977 srl_52/n47
*978 srl_52/U44
*979 srl_52/n17
*980 srl_52/U173
*981 srl_52/U146
*982 srl_52/U132
*983 srl_52/U115
*984 srl_52/U100
*985 srl_52/n15
*986 srl_52/U169
*987 srl_52/U158
*988 srl_52/n48
*989 srl_52/U48
*990 srl_52/n94
*991 srl_52/U86
*992 srl_52/U31
*993 B_reg\[17\]
*994 srl_52/U66
*995 B_reg_reg_17_
*996 srl_52/n13
*997 B_reg\[16\]
*998 srl_52/U59
*999 B_reg_reg_16_
*1000 srl_52/n20
*1001 srl_52/U172
*1002 srl_52/U165
*1003 srl_52/U160
*1004 srl_52/U150
*1005 srl_52/U137
*1006 srl_52/U124
*1007 srl_52/U87
*1008 srl_52/n154
*1009 srl_52/n51
*1010 srl_52/U51
*1011 srl_52/n16
*1012 srl_52/U143
*1013 srl_52/n52
*1014 srl_52/U52
*1015 srl_52/n95
*1016 srl_52/U38
*1017 srl_52/n25
*1018 srl_52/U134
*1019 srl_52/U108
*1020 srl_52/n26
*1021 n141
*1022 U109
*1023 U111
*1024 srl_52/n73
*1025 srl_52/U171
*1026 srl_52/U78
*1027 srl_52/U12
*1028 srl_52/n11
*1029 srl_52/U148
*1030 srl_52/U123
*1031 srl_52/U121
*1032 srl_52/U119
*1033 srl_52/U97
*1034 srl_52/n135
*1035 srl_52/U161
*1036 B_reg\[5\]
*1037 srl_52/U64
*1038 B_reg_reg_5_
*1039 srl_52/n14
*1040 B_reg\[4\]
*1041 srl_52/U62
*1042 B_reg_reg_4_
*1043 srl_52/n153
*1044 srl_52/n18
*1045 srl_52/n63
*1046 srl_52/U58
*1047 srl_52/n64
*1048 srl_52/U57
*1049 srl_52/n99
*1050 srl_52/U45
*1051 srl_52/U3
*1052 srl_52/n148
*1053 srl_52/n112
*1054 srl_52/U114
*1055 srl_52/U94
*1056 srl_52/U17
*1057 srl_52/U4
*1058 B_reg\[9\]
*1059 srl_52/U67
*1060 B_reg_reg_9_
*1061 B_reg\[8\]
*1062 srl_52/U65
*1063 B_reg_reg_8_
*1064 srl_52/n152
*1065 srl_52/n59
*1066 srl_52/U53
*1067 srl_52/n60
*1068 srl_52/U54
*1069 srl_52/n98
*1070 srl_52/U34
*1071 srl_52/n114
*1072 srl_52/U5
*1073 B_reg\[13\]
*1074 srl_52/U63
*1075 B_reg_reg_13_
*1076 B_reg\[12\]
*1077 srl_52/U61
*1078 B_reg_reg_12_
*1079 srl_52/n151
*1080 srl_52/n55
*1081 srl_52/U56
*1082 srl_52/n56
*1083 srl_52/U55
*1084 srl_52/n96
*1085 srl_52/U28
*1086 srl_52/n97
*1087 srl_52/n149
*1088 srl_52/U6
*1089 srl_52/n10
*1090 srl_52/U102
*1091 srl_52/n144
*1092 srl_52/n102
*1093 srl_52/U157
*1094 srl_52/U110
*1095 srl_52/U99
*1096 srl_52/U90
*1097 srl_52/U70
*1098 B_reg\[1\]
*1099 B_reg_reg_1_
*1100 B_reg\[0\]
*1101 B_reg_reg_0_
*1102 srl_52/n147
*1103 srl_52/n67
*1104 srl_52/U60
*1105 srl_52/n68
*1106 srl_52/U47
*1107 srl_52/n146
*1108 srl_52/n145
*1109 N145
*1110 U1088
*1111 B_reg\[11\]
*1112 B_reg_reg_11_
*1113 B_reg\[10\]
*1114 B_reg_reg_10_
*1115 srl_52/n143
*1116 srl_52/n57
*1117 srl_52/n58
*1118 srl_52/n123
*1119 srl_52/U36
*1120 B_reg\[22\]
*1121 B_reg_reg_22_
*1122 IBB
*1123 U835
*1124 U709
*1125 srl_52/n85
*1126 srl_52/U127
*1127 srl_52/U106
*1128 srl_52/U25
*1129 B_reg\[19\]
*1130 B_reg_reg_19_
*1131 B_reg\[18\]
*1132 B_reg_reg_18_
*1133 srl_52/n142
*1134 srl_52/n49
*1135 srl_52/n50
*1136 srl_52/n83
*1137 srl_52/U82
*1138 srl_52/U39
*1139 srl_52/n32
*1140 srl_52/n134
*1141 srl_52/U145
*1142 srl_52/n9
*1143 srl_52/U149
*1144 srl_52/U113
*1145 srl_52/U93
*1146 srl_52/n23
*1147 srl_52/n133
*1148 srl_52/U125
*1149 srl_52/U122
*1150 srl_52/U120
*1151 srl_52/U21
*1152 srl_52/n22
*1153 srl_52/U20
*1154 srl_52/n71
*1155 srl_52/U136
*1156 srl_52/U77
*1157 B_reg\[15\]
*1158 B_reg_reg_15_
*1159 B_reg\[14\]
*1160 B_reg_reg_14_
*1161 srl_52/n141
*1162 srl_52/n53
*1163 srl_52/n54
*1164 srl_52/n84
*1165 srl_52/U30
*1166 srl_52/n30
*1167 srl_52/U81
*1168 srl_52/n69
*1169 srl_52/U105
*1170 srl_52/U85
*1171 srl_52/U83
*1172 srl_52/U79
*1173 srl_52/U128
*1174 srl_52/U126
*1175 srl_52/U107
*1176 srl_52/n33
*1177 srl_52/n72
*1178 N155
*1179 U810
*1180 srl_52/n140
*1181 srl_52/n76
*1182 srl_52/U80
*1183 srl_52/U27
*1184 srl_52/n139
*1185 srl_52/n113
*1186 srl_52/U33
*1187 srl_52/n80
*1188 srl_52/U23
*1189 srl_52/n138
*1190 srl_52/n78
*1191 srl_52/U40
*1192 srl_52/n37
*1193 srl_52/n116
*1194 srl_52/n34
*1195 srl_52/n35
*1196 N156
*1197 U826
*1198 srl_52/n75
*1199 srl_52/U84
*1200 srl_52/U22
*1201 srl_52/n29
*1202 srl_52/n21
*1203 N157
*1204 U809
*1205 srl_52/n137
*1206 srl_52/n89
*1207 srl_52/U29
*1208 srl_52/n45
*1209 srl_52/n90
*1210 srl_52/U24
*1211 srl_52/n136
*1212 srl_52/n88
*1213 srl_52/U37
*1214 srl_52/n38
*1215 srl_52/n40
*1216 N158
*1217 U824
*1218 N159
*1219 U802
*1220 N160
*1221 U811
*1222 srl_52/n4
*1223 N161
*1224 U804
*1225 srl_52/n70
*1226 srl_52/n129
*1227 N162
*1228 U812
*1229 srl_52/n121
*1230 N163
*1231 U805
*1232 n140
*1233 U110
*1234 N164
*1235 U814
*1236 B_reg\[6\]
*1237 B_reg_reg_6_
*1238 srl_52/n132
*1239 srl_52/n62
*1240 srl_52/n92
*1241 srl_52/U42
*1242 srl_52/n131
*1243 srl_52/n91
*1244 srl_52/U35
*1245 srl_52/n111
*1246 srl_52/n130
*1247 srl_52/n125
*1248 B_reg\[2\]
*1249 B_reg_reg_2_
*1250 srl_52/n128
*1251 srl_52/n66
*1252 srl_52/n127
*1253 srl_52/n126
*1254 N146
*1255 U808
*1256 N165
*1257 U806
*1258 N166
*1259 U815
*1260 N167
*1261 U828
*1262 N168
*1263 U710
*1264 B_reg\[7\]
*1265 B_reg_reg_7_
*1266 srl_52/n124
*1267 srl_52/n61
*1268 srl_52/n86
*1269 srl_52/U46
*1270 srl_52/n122
*1271 srl_52/n117
*1272 B_reg\[3\]
*1273 B_reg_reg_3_
*1274 srl_52/n120
*1275 srl_52/n65
*1276 srl_52/n119
*1277 srl_52/n118
*1278 N147
*1279 U859
*1280 srl_52/n109
*1281 srl_52/n115
*1282 srl_52/n81
*1283 srl_52/U43
*1284 srl_52/n110
*1285 srl_52/n100
*1286 srl_52/n106
*1287 srl_52/n103
*1288 srl_52/n101
*1289 N148
*1290 U820
*1291 srl_52/n79
*1292 srl_52/n77
*1293 srl_52/n93
*1294 srl_52/n27
*1295 srl_52/n28
*1296 N149
*1297 U831
*1298 srl_52/n39
*1299 srl_52/n87
*1300 srl_52/n41
*1301 srl_52/n42
*1302 N150
*1303 U819
*1304 srl_52/n31
*1305 srl_52/n82
*1306 srl_52/n43
*1307 N151
*1308 U832
*1309 srl_52/n36
*1310 srl_52/n74
*1311 srl_52/n44
*1312 N152
*1313 U822
*1314 N153
*1315 U807
*1316 N154
*1317 U817
*1318 n137
*1319 U108
*1320 U107
*1321 srl_52/n6
*1322 srl_52/n8
*1323 srl_52/n12
*1324 srl_52/n1
*1325 srl_52/n2
*1326 srl_52/n3
*1327 n138
*1328 U106
*1329 n139
*1330 add_59/carry\[1\]
*1331 add_59/U1_0
*1332 add_59/U1_1
*1333 N212
*1334 U863
*1335 MA\[1\]
*1336 sub_68/U2_1
*1337 sub_70/U93
*1338 U1186
*1339 U738
*1340 U571
*1341 MB\[1\]
*1342 sub_68/U101
*1343 sub_70/U2_1
*1344 U1185
*1345 U743
*1346 U359
*1347 add_59/carry\[2\]
*1348 add_59/U1_2
*1349 N213
*1350 U1061
*1351 U862
*1352 MA\[2\]
*1353 sub_68/U2_2
*1354 sub_70/U94
*1355 U833
*1356 U729
*1357 MB\[2\]
*1358 sub_68/U104
*1359 sub_70/U24
*1360 sub_70/U23
*1361 sub_70/U20
*1362 U1187
*1363 U754
*1364 U563
*1365 add_59/carry\[3\]
*1366 add_59/U1_3
*1367 N214
*1368 U1099
*1369 U1035
*1370 MA\[3\]
*1371 sub_68/U74
*1372 sub_68/U73
*1373 sub_68/U70
*1374 sub_70/U95
*1375 U1188
*1376 U728
*1377 U535
*1378 MB\[3\]
*1379 sub_68/U105
*1380 sub_70/U29
*1381 sub_70/U28
*1382 sub_70/U25
*1383 U751
*1384 U536
*1385 add_59/carry\[4\]
*1386 add_59/U1_4
*1387 N215
*1388 U1068
*1389 U1000
*1390 MA\[4\]
*1391 sub_68/U2_4
*1392 sub_70/U96
*1393 U791
*1394 U727
*1395 MB\[4\]
*1396 sub_68/U106
*1397 sub_70/U2_4
*1398 U1189
*1399 U830
*1400 U753
*1401 add_59/carry\[5\]
*1402 add_59/U1_5
*1403 N216
*1404 U1069
*1405 U1037
*1406 MA\[5\]
*1407 sub_68/U13
*1408 sub_68/U12
*1409 sub_68/U9
*1410 sub_70/U97
*1411 U1190
*1412 U777
*1413 U726
*1414 MB\[5\]
*1415 sub_68/U107
*1416 sub_70/U2_5
*1417 U818
*1418 U749
*1419 add_59/carry\[6\]
*1420 add_59/U1_6
*1421 N217
*1422 U1098
*1423 U1071
*1424 MA\[6\]
*1425 sub_68/U2_6
*1426 sub_70/U98
*1427 U793
*1428 U733
*1429 MB\[6\]
*1430 sub_68/U100
*1431 sub_70/U56
*1432 sub_70/U55
*1433 sub_70/U52
*1434 U1191
*1435 U759
*1436 U540
*1437 add_59/carry\[7\]
*1438 add_59/U1_7
*1439 N218
*1440 U1109
*1441 U1048
*1442 MA\[7\]
*1443 sub_68/U2_7
*1444 sub_70/U92
*1445 U1192
*1446 U780
*1447 U732
*1448 MB\[7\]
*1449 sub_68/U99
*1450 sub_70/U2_7
*1451 U821
*1452 U750
*1453 add_59/carry\[8\]
*1454 add_59/U1_8
*1455 N219
*1456 U1125
*1457 U1064
*1458 MA\[8\]
*1459 sub_68/U26
*1460 sub_68/U25
*1461 sub_68/U22
*1462 sub_70/U1
*1463 U731
*1464 U529
*1465 MB\[8\]
*1466 sub_68/U98
*1467 sub_70/U37
*1468 sub_70/U36
*1469 sub_70/U33
*1470 U1193
*1471 U758
*1472 U530
*1473 add_59/carry\[9\]
*1474 add_59/U1_9
*1475 N220
*1476 U1097
*1477 U1023
*1478 MA\[9\]
*1479 sub_68/U2_9
*1480 sub_70/U91
*1481 U1194
*1482 U789
*1483 U730
*1484 MB\[9\]
*1485 sub_68/U97
*1486 sub_70/U2_9
*1487 U816
*1488 U763
*1489 add_59/carry\[10\]
*1490 add_59/U1_10
*1491 N221
*1492 U1108
*1493 U1080
*1494 MA\[10\]
*1495 sub_68/U80
*1496 sub_68/U79
*1497 sub_68/U76
*1498 sub_70/U2
*1499 U774
*1500 U737
*1501 MB\[10\]
*1502 sub_68/U96
*1503 sub_70/U13
*1504 sub_70/U12
*1505 sub_70/U9
*1506 U1195
*1507 U744
*1508 U539
*1509 add_59/carry\[11\]
*1510 add_59/U1_11
*1511 N222
*1512 U1124
*1513 U1014
*1514 MA\[11\]
*1515 sub_68/U46
*1516 sub_68/U45
*1517 sub_68/U42
*1518 sub_70/U90
*1519 U1196
*1520 U736
*1521 U531
*1522 MB\[11\]
*1523 sub_68/U95
*1524 sub_70/U2_11
*1525 U825
*1526 U761
*1527 add_59/carry\[12\]
*1528 add_59/U1_12
*1529 N223
*1530 U1096
*1531 U1074
*1532 MA\[12\]
*1533 sub_68/U33
*1534 sub_68/U32
*1535 sub_68/U29
*1536 sub_70/U89
*1537 U735
*1538 U532
*1539 MB\[12\]
*1540 sub_68/U94
*1541 sub_70/U50
*1542 sub_70/U49
*1543 sub_70/U46
*1544 U1197
*1545 U762
*1546 U533
*1547 add_59/carry\[13\]
*1548 add_59/U1_13
*1549 N224
*1550 U1104
*1551 U1021
*1552 MA\[13\]
*1553 sub_68/U2_13
*1554 sub_70/U88
*1555 U1198
*1556 U771
*1557 U734
*1558 MB\[13\]
*1559 sub_68/U93
*1560 sub_70/U2_13
*1561 U823
*1562 U760
*1563 add_59/carry\[14\]
*1564 add_59/U1_14
*1565 N225
*1566 U1123
*1567 U1067
*1568 MA\[14\]
*1569 sub_68/U59
*1570 sub_68/U58
*1571 sub_68/U55
*1572 sub_70/U83
*1573 U725
*1574 U537
*1575 MB\[14\]
*1576 sub_68/U88
*1577 sub_70/U2_14
*1578 U1199
*1579 U801
*1580 U752
*1581 add_59/carry\[15\]
*1582 add_59/U1_15
*1583 N226
*1584 U1095
*1585 U1054
*1586 MA\[15\]
*1587 sub_68/U40
*1588 sub_68/U39
*1589 sub_68/U36
*1590 sub_70/U79
*1591 U1200
*1592 U724
*1593 U538
*1594 MB\[15\]
*1595 sub_68/U84
*1596 sub_70/U69
*1597 sub_70/U68
*1598 sub_70/U65
*1599 U745
*1600 U527
*1601 add_59/carry\[16\]
*1602 add_59/U1_16
*1603 N227
*1604 U1107
*1605 U1083
*1606 MA\[16\]
*1607 sub_68/U2_16
*1608 sub_70/U80
*1609 U796
*1610 U719
*1611 MB\[16\]
*1612 sub_68/U85
*1613 sub_70/U2_16
*1614 U1201
*1615 U803
*1616 U755
*1617 add_59/carry\[17\]
*1618 add_59/U1_17
*1619 N228
*1620 U1122
*1621 U1040
*1622 MA\[17\]
*1623 sub_68/U67
*1624 sub_68/U66
*1625 sub_68/U63
*1626 sub_70/U81
*1627 U1202
*1628 U718
*1629 U541
*1630 MB\[17\]
*1631 sub_68/U86
*1632 sub_70/U43
*1633 sub_70/U42
*1634 sub_70/U39
*1635 U746
*1636 U542
*1637 add_59/carry\[18\]
*1638 add_59/U1_18
*1639 N229
*1640 U1094
*1641 U1077
*1642 MA\[18\]
*1643 sub_68/U53
*1644 sub_68/U52
*1645 sub_68/U49
*1646 sub_70/U82
*1647 U720
*1648 U543
*1649 MB\[18\]
*1650 sub_68/U87
*1651 sub_70/U63
*1652 sub_70/U62
*1653 sub_70/U59
*1654 U1203
*1655 U756
*1656 U544
*1657 add_59/carry\[19\]
*1658 add_59/U1_19
*1659 N230
*1660 U1106
*1661 U1051
*1662 MA\[19\]
*1663 sub_68/U2_19
*1664 sub_70/U84
*1665 U1204
*1666 U783
*1667 U721
*1668 MB\[19\]
*1669 sub_68/U89
*1670 sub_70/U2_19
*1671 U813
*1672 U747
*1673 add_59/carry\[20\]
*1674 add_59/U1_20
*1675 N231
*1676 U1121
*1677 U1017
*1678 MA\[20\]
*1679 sub_68/U19
*1680 sub_68/U18
*1681 sub_68/U15
*1682 sub_70/U85
*1683 U723
*1684 U534
*1685 MB\[20\]
*1686 sub_68/U90
*1687 sub_70/U75
*1688 sub_70/U74
*1689 sub_70/U71
*1690 U1205
*1691 U757
*1692 U549
*1693 add_59/carry\[21\]
*1694 add_59/U1_21
*1695 N232
*1696 U1093
*1697 U1025
*1698 MA\[21\]
*1699 sub_68/U2_21
*1700 sub_70/U86
*1701 U1206
*1702 U785
*1703 U722
*1704 MB\[21\]
*1705 sub_68/U91
*1706 sub_70/U7
*1707 sub_70/U6
*1708 sub_70/U3
*1709 U748
*1710 U548
*1711 add_59/carry\[22\]
*1712 add_59/U1_22
*1713 N233
*1714 U1105
*1715 U1028
*1716 MA\[22\]
*1717 sub_68/U7
*1718 sub_68/U6
*1719 sub_68/U3
*1720 sub_70/U87
*1721 U1207
*1722 U547
*1723 MB\[22\]
*1724 sub_68/U92
*1725 sub_70/U2_22
*1726 U827
*1727 U715
*1728 add_59/carry\[23\]
*1729 add_59/U1_23
*1730 N234
*1731 U1059
*1732 U1022
*1733 r145_B_23_
*1734 sub_68/U1
*1735 sub_70/U77
*1736 U1208
*1737 U739
*1738 MB\[23\]
*1739 sub_68/U83
*1740 sub_70/U32
*1741 U1209
*1742 U708
*1743 U660
*1744 N236
*1745 U1126
*1746 U703
*1747 U635
*1748 U582
*1749 U581
*1750 U95
*1751 N235
*1752 U1120
*1753 add_63/carry\[7\]
*1754 N245
*1755 N238
*1756 add_63/carry\[2\]
*1757 N239
*1758 add_63/carry\[3\]
*1759 N240
*1760 add_63/carry\[4\]
*1761 N241
*1762 add_63/carry\[5\]
*1763 N242
*1764 add_63/carry\[6\]
*1765 N243
*1766 N244
*1767 MB\[0\]
*1768 sub_68/U108
*1769 sub_68/U102
*1770 sub_70/U78
*1771 sub_70/U45
*1772 U522
*1773 sub_68/n81
*1774 sub_68/U82
*1775 sub_68/n59
*1776 sub_68/U11
*1777 sub_68/n58
*1778 sub_68/n62
*1779 sub_68/U72
*1780 sub_68/n63
*1781 sub_68/n57
*1782 sub_68/U103
*1783 sub_68/carry\[1\]
*1784 sub_68/n64
*1785 sub_68/n60
*1786 sub_68/n61
*1787 sub_68/n75
*1788 sub_68/U24
*1789 sub_68/n76
*1790 sub_68/n65
*1791 sub_68/U78
*1792 sub_68/n66
*1793 sub_68/U44
*1794 sub_68/n67
*1795 sub_68/U31
*1796 sub_68/n68
*1797 sub_68/n73
*1798 sub_68/U5
*1799 sub_68/n72
*1800 sub_68/n71
*1801 sub_68/U17
*1802 sub_68/n80
*1803 sub_68/n69
*1804 sub_68/U57
*1805 sub_68/n79
*1806 sub_68/U51
*1807 sub_68/n78
*1808 sub_68/U65
*1809 sub_68/n77
*1810 sub_68/n70
*1811 sub_68/U38
*1812 sub_68/n74
*1813 n134
*1814 U103
*1815 U105
*1816 N280
*1817 U680
*1818 sub_68/n54
*1819 sub_68/U81
*1820 sub_68/n55
*1821 sub_68/n56
*1822 sub_68/carry\[11\]
*1823 sub_68/U43
*1824 sub_68/carry\[10\]
*1825 sub_68/U77
*1826 sub_68/n53
*1827 N290
*1828 U679
*1829 sub_68/n51
*1830 sub_68/U75
*1831 sub_68/n50
*1832 sub_68/n52
*1833 sub_68/carry\[4\]
*1834 sub_68/carry\[3\]
*1835 sub_68/U71
*1836 sub_68/n49
*1837 N283
*1838 U671
*1839 sub_68/carry\[23\]
*1840 sub_68/U69
*1841 sub_68/U8
*1842 sub_68/n1
*1843 N303
*1844 U1008
*1845 sub_68/n46
*1846 sub_68/U68
*1847 sub_68/U62
*1848 sub_68/U61
*1849 sub_68/n47
*1850 sub_68/n48
*1851 sub_68/carry\[18\]
*1852 sub_68/carry\[17\]
*1853 sub_68/U64
*1854 sub_68/n45
*1855 N297
*1856 U681
*1857 n135
*1858 A_reg_reg_31_
*1859 sub_68/n44
*1860 sub_68/U50
*1861 sub_68/n43
*1862 sub_68/n41
*1863 sub_68/U60
*1864 sub_68/n40
*1865 sub_68/n42
*1866 sub_68/carry\[15\]
*1867 sub_68/U37
*1868 sub_68/carry\[14\]
*1869 sub_68/U56
*1870 n133
*1871 U104
*1872 sub_68/n39
*1873 N294
*1874 U667
*1875 sub_68/n36
*1876 sub_68/U54
*1877 sub_68/n37
*1878 sub_68/n38
*1879 sub_68/carry\[19\]
*1880 sub_68/n35
*1881 N298
*1882 U682
*1883 sub_68/n31
*1884 sub_68/U47
*1885 sub_68/U35
*1886 sub_68/n32
*1887 sub_68/n33
*1888 sub_68/carry\[12\]
*1889 sub_68/n30
*1890 N291
*1891 U672
*1892 sub_68/n28
*1893 sub_68/U41
*1894 sub_68/n27
*1895 sub_68/n29
*1896 sub_68/carry\[16\]
*1897 sub_68/n26
*1898 N295
*1899 U550
*1900 sub_68/n25
*1901 sub_68/U30
*1902 sub_68/n22
*1903 sub_68/U34
*1904 sub_68/n23
*1905 sub_68/n24
*1906 sub_68/carry\[13\]
*1907 sub_68/n21
*1908 N292
*1909 U663
*1910 sub_68/n17
*1911 sub_68/U27
*1912 sub_68/n18
*1913 sub_68/n19
*1914 sub_68/carry\[9\]
*1915 sub_68/carry\[8\]
*1916 sub_68/U23
*1917 n132
*1918 sub_68/n16
*1919 N288
*1920 U668