*SPEF "1481-1998"
*DESIGN "fpMultiplier"
*DATE "Fri Dec 29 05:36:29 2017"
*VENDOR "Synopsys, Inc."
*PROGRAM "icc_shell"
*VERSION "G-2012.06-ICC-SP2"
*DESIGN_FLOW "PIN_CAP NONE"
*DIVIDER /
*DELIMITER :
*BUS_DELIMITER [ ]
*T_UNIT 1 NS
*C_UNIT 1 FF
*R_UNIT 1 OHM
*L_UNIT 1 HENRY

*NAME_MAP
*1 A[3]
*2 A[2]
*3 A[1]
*4 A[0]
*5 VDD
*6 VSS
*7 A[11]
*8 A[10]
*9 A[9]
*10 A[8]
*11 A[7]
*12 A[6]
*13 A[5]
*14 A[4]
*15 A[19]
*16 A[18]
*17 A[17]
*18 A[16]
*19 A[15]
*20 A[14]
*21 A[13]
*22 A[12]
*23 A[27]
*24 A[26]
*25 A[25]
*26 A[24]
*27 A[23]
*28 A[22]
*29 A[21]
*30 A[20]
*31 B[3]
*32 B[2]
*33 B[1]
*34 B[0]
*35 A[31]
*36 A[30]
*37 A[29]
*38 A[28]
*39 B[11]
*40 B[10]
*41 B[9]
*42 B[8]
*43 B[7]
*44 B[6]
*45 B[5]
*46 B[4]
*47 B[19]
*48 B[18]
*49 B[17]
*50 B[16]
*51 B[15]
*52 B[14]
*53 B[13]
*54 B[12]
*55 B[27]
*56 B[26]
*57 B[25]
*58 B[24]
*59 B[23]
*60 B[22]
*61 B[21]
*62 B[20]
*63 result[3]
*64 result[2]
*65 result[1]
*66 result[0]
*67 B[31]
*68 B[30]
*69 B[29]
*70 B[28]
*71 result[11]
*72 result[10]
*73 result[9]
*74 result[8]
*75 result[7]
*76 result[6]
*77 result[5]
*78 result[4]
*79 result[19]
*80 result[18]
*81 result[17]
*82 result[16]
*83 result[15]
*84 result[14]
*85 result[13]
*86 result[12]
*87 result[27]
*88 result[26]
*89 result[25]
*90 result[24]
*91 result[23]
*92 result[22]
*93 result[21]
*94 result[20]
*95 overflow
*96 enable
*97 reset
*98 clk
*99 result[31]
*100 result[30]
*101 result[29]
*102 result[28]
*103 regA\[23\]
*104 add_2_root_sub_1_root_add_24_2/U2
*105 add_2_root_sub_1_root_add_24_2/U1
*106 U380
*107 regA_reg_23_
*108 regB\[23\]
*109 U538
*110 regB_reg_23_
*111 add_0_root_sub_1_root_add_24_2_A_0_
*112 U332
*113 U299
*114 add_2_root_sub_1_root_add_24_2/n1
*115 add_2_root_sub_1_root_add_24_2/U1_1
*116 regB\[24\]
*117 regB_reg_24_
*118 regA\[24\]
*119 regA_reg_24_
*120 add_2_root_sub_1_root_add_24_2/carry\[2\]
*121 add_2_root_sub_1_root_add_24_2/U1_2
*122 add_0_root_sub_1_root_add_24_2_A_1_
*123 add_0_root_sub_1_root_add_24_2_U1_1
*124 regB\[25\]
*125 regB_reg_25_
*126 regA\[25\]
*127 regA_reg_25_
*128 add_2_root_sub_1_root_add_24_2/carry\[3\]
*129 add_2_root_sub_1_root_add_24_2/U1_3
*130 add_0_root_sub_1_root_add_24_2_A_2_
*131 U333
*132 U295
*133 regB\[26\]
*134 regB_reg_26_
*135 regA\[26\]
*136 regA_reg_26_
*137 add_2_root_sub_1_root_add_24_2/carry\[4\]
*138 add_2_root_sub_1_root_add_24_2/U1_4
*139 add_0_root_sub_1_root_add_24_2_A_3_
*140 U334
*141 U296
*142 regB\[27\]
*143 U375
*144 regB_reg_27_
*145 regA\[27\]
*146 U379
*147 regA_reg_27_
*148 add_2_root_sub_1_root_add_24_2/carry\[5\]
*149 add_2_root_sub_1_root_add_24_2/U1_5
*150 add_0_root_sub_1_root_add_24_2_A_4_
*151 U335
*152 U297
*153 regB\[28\]
*154 regB_reg_28_
*155 regA\[28\]
*156 regA_reg_28_
*157 add_2_root_sub_1_root_add_24_2/carry\[6\]
*158 add_2_root_sub_1_root_add_24_2/U1_6
*159 add_0_root_sub_1_root_add_24_2_A_5_
*160 U336
*161 U298
*162 regB\[29\]
*163 regB_reg_29_
*164 regA\[29\]
*165 regA_reg_29_
*166 add_2_root_sub_1_root_add_24_2/carry\[7\]
*167 add_2_root_sub_1_root_add_24_2/U1_7
*168 add_0_root_sub_1_root_add_24_2_A_6_
*169 U337
*170 U294
*171 regB\[30\]
*172 regB_reg_30_
*173 regA\[30\]
*174 regA_reg_30_
*175 add_0_root_sub_1_root_add_24_2_A_8_
*176 U300
*177 add_0_root_sub_1_root_add_24_2_A_7_
*178 U338
*179 U302
*180 mult_21/n90
*181 mult_21/FS_1/U136
*182 mult_21/FS_1/U3
*183 mult_21/U93
*184 mult_21/n88
*185 mult_21/U91
*186 mult_21/FS_1/n113
*187 mult_21/FS_1/U30
*188 mult_21/FS_1/U2
*189 mult_21/n91
*190 mult_21/FS_1/U135
*191 mult_21/FS_1/U134
*192 mult_21/U94
*193 mult_21/n61
*194 mult_21/U63
*195 mult_21/FS_1/n110
*196 mult_21/FS_1/U133
*197 mult_21/FS_1/U128
*198 mult_21/FS_1/n111
*199 mult_21/FS_1/U24
*200 mult_21/FS_1/n112
*201 mult_21/FS_1/U132
*202 mult_21/FS_1/n28
*203 mantissasProduct\[26\]
*204 U322
*205 mult_21/n53
*206 mult_21/FS_1/U131
*207 mult_21/FS_1/U130
*208 mult_21/U55
*209 mult_21/n46
*210 mult_21/U48
*211 mult_21/FS_1/n106
*212 mult_21/FS_1/U126
*213 mult_21/FS_1/U16
*214 mult_21/FS_1/n108
*215 mult_21/FS_1/U129
*216 mult_21/FS_1/n26
*217 mult_21/FS_1/n109
*218 mult_21/FS_1/U127
*219 mult_21/FS_1/n27
*220 mult_21/FS_1/n107
*221 mantissasProduct\[27\]
*222 U313
*223 mult_21/FS_1/n102
*224 mult_21/FS_1/U122
*225 mult_21/FS_1/U118
*226 mult_21/n68
*227 mult_21/FS_1/U125
*228 mult_21/FS_1/U124
*229 mult_21/U70
*230 mult_21/n60
*231 mult_21/U62
*232 mult_21/FS_1/n103
*233 mult_21/FS_1/U123
*234 mult_21/FS_1/n104
*235 mult_21/FS_1/U5
*236 mult_21/FS_1/n105
*237 mantissasProduct\[28\]
*238 U312
*239 mult_21/n55
*240 mult_21/FS_1/U121
*241 mult_21/FS_1/U120
*242 mult_21/U57
*243 mult_21/n48
*244 mult_21/U50
*245 mult_21/FS_1/n98
*246 mult_21/FS_1/U116
*247 mult_21/FS_1/U17
*248 mult_21/FS_1/n100
*249 mult_21/FS_1/U119
*250 mult_21/FS_1/n24
*251 mult_21/FS_1/n101
*252 mult_21/FS_1/U117
*253 mult_21/FS_1/n25
*254 mult_21/FS_1/n99
*255 mantissasProduct\[29\]
*256 U314
*257 mult_21/FS_1/n94
*258 mult_21/FS_1/U112
*259 mult_21/FS_1/U108
*260 mult_21/n69
*261 mult_21/FS_1/U115
*262 mult_21/FS_1/U114
*263 mult_21/U71
*264 mult_21/n62
*265 mult_21/U64
*266 mult_21/FS_1/n95
*267 mult_21/FS_1/U113
*268 mult_21/FS_1/n96
*269 mult_21/FS_1/U6
*270 mult_21/FS_1/n97
*271 mantissasProduct\[30\]
*272 U305
*273 mult_21/n56
*274 mult_21/FS_1/U111
*275 mult_21/FS_1/U110
*276 mult_21/U58
*277 mult_21/n49
*278 mult_21/U51
*279 mult_21/FS_1/n90
*280 mult_21/FS_1/U106
*281 mult_21/FS_1/U18
*282 mult_21/FS_1/n92
*283 mult_21/FS_1/U109
*284 mult_21/FS_1/n22
*285 mult_21/FS_1/n93
*286 mult_21/FS_1/U107
*287 mult_21/FS_1/n23
*288 mult_21/FS_1/n91
*289 mantissasProduct\[31\]
*290 U315
*291 mult_21/FS_1/n86
*292 mult_21/FS_1/U102
*293 mult_21/FS_1/U98
*294 mult_21/n71
*295 mult_21/FS_1/U105
*296 mult_21/FS_1/U104
*297 mult_21/U73
*298 mult_21/n64
*299 mult_21/U66
*300 mult_21/FS_1/n87
*301 mult_21/FS_1/U103
*302 mult_21/FS_1/n88
*303 mult_21/FS_1/U7
*304 mult_21/FS_1/n89
*305 mantissasProduct\[32\]
*306 U306
*307 mult_21/n57
*308 mult_21/FS_1/U101
*309 mult_21/FS_1/U100
*310 mult_21/U59
*311 mult_21/n50
*312 mult_21/U52
*313 mult_21/FS_1/n82
*314 mult_21/FS_1/U96
*315 mult_21/FS_1/U19
*316 mult_21/FS_1/n84
*317 mult_21/FS_1/U99
*318 mult_21/FS_1/n20
*319 mult_21/FS_1/n85
*320 mult_21/FS_1/U97
*321 mult_21/FS_1/n21
*322 mult_21/FS_1/n83
*323 mantissasProduct\[33\]
*324 U316
*325 mult_21/FS_1/n78
*326 mult_21/FS_1/U92
*327 mult_21/FS_1/U88
*328 mult_21/n73
*329 mult_21/FS_1/U95
*330 mult_21/FS_1/U94
*331 mult_21/U75
*332 mult_21/n66
*333 mult_21/U68
*334 mult_21/FS_1/n79
*335 mult_21/FS_1/U93
*336 mult_21/FS_1/n80
*337 mult_21/FS_1/U8
*338 mult_21/FS_1/n81
*339 mantissasProduct\[34\]
*340 U307
*341 mult_21/n58
*342 mult_21/FS_1/U91
*343 mult_21/FS_1/U90
*344 mult_21/U60
*345 mult_21/n51
*346 mult_21/U53
*347 mult_21/FS_1/n74
*348 mult_21/FS_1/U86
*349 mult_21/FS_1/U20
*350 mult_21/FS_1/n76
*351 mult_21/FS_1/U89
*352 mult_21/FS_1/n18
*353 mult_21/FS_1/n77
*354 mult_21/FS_1/U87
*355 mult_21/FS_1/n19
*356 mult_21/FS_1/n75
*357 mantissasProduct\[35\]
*358 U317
*359 mult_21/FS_1/n70
*360 mult_21/FS_1/U82
*361 mult_21/FS_1/U78
*362 mult_21/n74
*363 mult_21/FS_1/U85
*364 mult_21/FS_1/U84
*365 mult_21/U76
*366 mult_21/n67
*367 mult_21/U69
*368 mult_21/FS_1/n71
*369 mult_21/FS_1/U83
*370 mult_21/FS_1/n72
*371 mult_21/FS_1/U14
*372 mult_21/FS_1/n73
*373 mantissasProduct\[36\]
*374 U308
*375 mult_21/n54
*376 mult_21/FS_1/U81
*377 mult_21/FS_1/U80
*378 mult_21/U56
*379 mult_21/n47
*380 mult_21/U49
*381 mult_21/FS_1/n66
*382 mult_21/FS_1/U76
*383 mult_21/FS_1/U23
*384 mult_21/FS_1/n68
*385 mult_21/FS_1/U79
*386 mult_21/FS_1/n16
*387 mult_21/FS_1/n69
*388 mult_21/FS_1/U77
*389 mult_21/FS_1/n17
*390 mult_21/FS_1/n67
*391 mantissasProduct\[37\]
*392 U320
*393 mult_21/FS_1/n62
*394 mult_21/FS_1/U72
*395 mult_21/FS_1/U68
*396 mult_21/n70
*397 mult_21/FS_1/U75
*398 mult_21/FS_1/U74
*399 mult_21/U72
*400 mult_21/n63
*401 mult_21/U65
*402 mult_21/FS_1/n63
*403 mult_21/FS_1/U73
*404 mult_21/FS_1/n64
*405 mult_21/FS_1/U9
*406 mult_21/FS_1/n65
*407 mantissasProduct\[38\]
*408 U309
*409 mult_21/n59
*410 mult_21/FS_1/U71
*411 mult_21/FS_1/U70
*412 mult_21/U61
*413 mult_21/n52
*414 mult_21/U54
*415 mult_21/FS_1/n58
*416 mult_21/FS_1/U66
*417 mult_21/FS_1/U21
*418 mult_21/FS_1/n60
*419 mult_21/FS_1/U69
*420 mult_21/FS_1/n14
*421 mult_21/FS_1/n61
*422 mult_21/FS_1/U67
*423 mult_21/FS_1/n15
*424 mult_21/FS_1/n59
*425 mantissasProduct\[39\]
*426 U318
*427 mult_21/FS_1/n54
*428 mult_21/FS_1/U62
*429 mult_21/FS_1/U58
*430 mult_21/n72
*431 mult_21/FS_1/U65
*432 mult_21/FS_1/U64
*433 mult_21/U74
*434 mult_21/n65
*435 mult_21/U67
*436 mult_21/FS_1/n55
*437 mult_21/FS_1/U63
*438 mult_21/FS_1/n56
*439 mult_21/FS_1/U10
*440 mult_21/FS_1/n57
*441 mantissasProduct\[40\]
*442 U310
*443 mult_21/n80
*444 mult_21/FS_1/U61
*445 mult_21/FS_1/U60
*446 mult_21/U82
*447 mult_21/n76
*448 mult_21/U78
*449 mult_21/FS_1/n50
*450 mult_21/FS_1/U56
*451 mult_21/FS_1/U22
*452 mult_21/FS_1/n52
*453 mult_21/FS_1/U59
*454 mult_21/FS_1/n12
*455 mult_21/FS_1/n53
*456 mult_21/FS_1/U57
*457 mult_21/FS_1/n13
*458 mult_21/FS_1/n51
*459 mantissasProduct\[41\]
*460 U319
*461 mult_21/FS_1/n46
*462 mult_21/FS_1/U52
*463 mult_21/FS_1/U48
*464 mult_21/n85
*465 mult_21/FS_1/U55
*466 mult_21/FS_1/U54
*467 mult_21/U87
*468 mult_21/n83
*469 mult_21/U85
*470 mult_21/FS_1/n47
*471 mult_21/FS_1/U53
*472 mult_21/FS_1/n48
*473 mult_21/FS_1/U11
*474 mult_21/FS_1/n49
*475 mantissasProduct\[42\]
*476 U311
*477 mult_21/n81
*478 mult_21/FS_1/U51
*479 mult_21/FS_1/U50
*480 mult_21/U83
*481 mult_21/n77
*482 mult_21/U79
*483 mult_21/FS_1/n42
*484 mult_21/FS_1/U46
*485 mult_21/FS_1/U15
*486 mult_21/FS_1/n44
*487 mult_21/FS_1/U49
*488 mult_21/FS_1/n10
*489 mult_21/FS_1/n45
*490 mult_21/FS_1/U47
*491 mult_21/FS_1/n11
*492 mult_21/FS_1/n43
*493 mantissasProduct\[43\]
*494 U304
*495 mult_21/FS_1/n38
*496 mult_21/FS_1/U42
*497 mult_21/FS_1/U38
*498 mult_21/n86
*499 mult_21/FS_1/U45
*500 mult_21/FS_1/U44
*501 mult_21/U88
*502 mult_21/n84
*503 mult_21/U86
*504 mult_21/FS_1/n39
*505 mult_21/FS_1/U43
*506 mult_21/FS_1/n40
*507 mult_21/FS_1/U12
*508 mult_21/FS_1/n41
*509 mantissasProduct\[44\]
*510 U303
*511 mult_21/n82
*512 mult_21/FS_1/U41
*513 mult_21/FS_1/U40
*514 mult_21/U84
*515 mult_21/n78
*516 mult_21/U80
*517 mult_21/FS_1/n34
*518 mult_21/FS_1/U36
*519 mult_21/FS_1/U4
*520 mult_21/FS_1/n36
*521 mult_21/FS_1/U39
*522 mult_21/FS_1/n8
*523 mult_21/FS_1/n37
*524 mult_21/FS_1/U37
*525 mult_21/FS_1/n9
*526 mult_21/FS_1/n35
*527 mantissasProduct\[45\]
*528 U377
*529 U372
*530 mult_21/FS_1/n30
*531 mult_21/FS_1/U32
*532 mult_21/FS_1/U31
*533 mult_21/n87
*534 mult_21/FS_1/U35
*535 mult_21/FS_1/U34
*536 mult_21/U89
*537 mult_21/n75
*538 mult_21/U77
*539 mult_21/FS_1/n31
*540 mult_21/FS_1/U33
*541 mult_21/FS_1/n32
*542 mult_21/FS_1/U13
*543 mult_21/FS_1/n33
*544 mantissasProduct\[46\]
*545 mult_21/FS_1/n7
*546 mult_21/FS_1/n29
*547 mult_21/FS_1/U29
*548 mult_21/FS_1/U26
*549 mult_21/FS_1/n4
*550 mult_21/FS_1/U27
*551 mult_21/n79
*552 mult_21/FS_1/U28
*553 mult_21/U81
*554 mult_21/FS_1/n3
*555 mult_21/FS_1/n6
*556 mult_21/FS_1/U25
*557 mult_21/FS_1/n5
*558 N90
*559 U541
*560 U539
*561 mult_21/FS_1/n2
*562 mantissasProduct\[25\]
*563 U321
*564 n85
*565 U63
*566 U65
*567 n86
*568 regB_reg_11_
*569 U66
*570 mult_21/ab_1__1_
*571 mult_21/U802
*572 mult_21/U801
*573 mult_21/U92
*574 mult_21/U25
*575 MB\[0\]
*576 U393
*577 regB_reg_0_
*578 mult_21/U113
*579 MA\[0\]
*580 U391
*581 regA_reg_0_
*582 mult_21/U136
*583 mult_21/CARRYB_1__0_
*584 mult_21/S1_2_0
*585 mult_21/n119
*586 mult_21/U602
*587 mult_21/U601
*588 mult_21/U600
*589 mult_21/U599
*590 mult_21/U610
*591 mult_21/U609
*592 mult_21/U608
*593 mult_21/U607
*594 mult_21/U606
*595 mult_21/U605
*596 mult_21/U604
*597 mult_21/U603
*598 mult_21/U590
*599 mult_21/U589
*600 mult_21/U588
*601 mult_21/U587
*602 mult_21/U598
*603 mult_21/U597
*604 mult_21/U596
*605 mult_21/U595
*606 mult_21/U594
*607 mult_21/U593
*608 mult_21/U592
*609 mult_21/U591
*610 mult_21/U119
*611 n87
*612 U68
*613 U67
*614 mult_21/ab_0__10_
*615 mult_21/U800
*616 mult_21/U39
*617 mult_21/U17
*618 mult_21/n117
*619 mult_21/U554
*620 mult_21/U553
*621 mult_21/U552
*622 mult_21/U551
*623 mult_21/U562
*624 mult_21/U561
*625 mult_21/U560
*626 mult_21/U559
*627 mult_21/U558
*628 mult_21/U557
*629 mult_21/U556
*630 mult_21/U555
*631 mult_21/U542
*632 mult_21/U541
*633 mult_21/U540
*634 mult_21/U539
*635 mult_21/U550
*636 mult_21/U549
*637 mult_21/U548
*638 mult_21/U547
*639 mult_21/U546
*640 mult_21/U545
*641 mult_21/U544
*642 mult_21/U543
*643 mult_21/U117
*644 mult_21/ab_0__11_
*645 mult_21/U799
*646 mult_21/U38
*647 mult_21/U16
*648 mult_21/n115
*649 mult_21/U484
*650 mult_21/U483
*651 mult_21/U482
*652 mult_21/U481
*653 mult_21/U492
*654 mult_21/U491
*655 mult_21/U490
*656 mult_21/U489
*657 mult_21/U488
*658 mult_21/U487
*659 mult_21/U486
*660 mult_21/U485
*661 mult_21/U472
*662 mult_21/U471
*663 mult_21/U470
*664 mult_21/U469
*665 mult_21/U480
*666 mult_21/U479
*667 mult_21/U478
*668 mult_21/U477
*669 mult_21/U476
*670 mult_21/U475
*671 mult_21/U474
*672 mult_21/U473
*673 mult_21/U115
*674 mult_21/ab_0__12_
*675 mult_21/U798
*676 mult_21/U37
*677 mult_21/U15
*678 mult_21/n113
*679 mult_21/U372
*680 mult_21/U348
*681 mult_21/U324
*682 mult_21/U300
*683 mult_21/U276
*684 mult_21/U252
*685 mult_21/U586
*686 mult_21/U516
*687 mult_21/U468
*688 mult_21/U444
*689 mult_21/U420
*690 mult_21/U396
*691 mult_21/U778
*692 mult_21/U754
*693 mult_21/U730
*694 mult_21/U706
*695 mult_21/U682
*696 mult_21/U658
*697 mult_21/U634
*698 mult_21/ab_0__13_
*699 mult_21/U797
*700 mult_21/U36
*701 mult_21/U14
*702 mult_21/n111
*703 mult_21/U308
*704 mult_21/U284
*705 mult_21/U260
*706 mult_21/U236
*707 mult_21/U500
*708 mult_21/U452
*709 mult_21/U428
*710 mult_21/U404
*711 mult_21/U380
*712 mult_21/U356
*713 mult_21/U332
*714 mult_21/U570
*715 mult_21/U524
*716 mult_21/U786
*717 mult_21/U762
*718 mult_21/U738
*719 mult_21/U714
*720 mult_21/U690
*721 mult_21/U666
*722 mult_21/U642
*723 mult_21/U618
*724 mult_21/U111
*725 mult_21/ab_0__14_
*726 mult_21/U796
*727 mult_21/U35
*728 mult_21/U13
*729 mult_21/n109
*730 mult_21/U306
*731 mult_21/U282
*732 mult_21/U258
*733 mult_21/U234
*734 mult_21/U498
*735 mult_21/U450
*736 mult_21/U426
*737 mult_21/U402
*738 mult_21/U378
*739 mult_21/U354
*740 mult_21/U330
*741 mult_21/U568
*742 mult_21/U522
*743 mult_21/U784
*744 mult_21/U760
*745 mult_21/U736
*746 mult_21/U712
*747 mult_21/U688
*748 mult_21/U664
*749 mult_21/U640
*750 mult_21/U616
*751 mult_21/U109
*752 mult_21/ab_0__15_
*753 mult_21/U795
*754 mult_21/U34
*755 mult_21/U12
*756 mult_21/n107
*757 mult_21/U304
*758 mult_21/U280
*759 mult_21/U256
*760 mult_21/U232
*761 mult_21/U496
*762 mult_21/U448
*763 mult_21/U424
*764 mult_21/U400
*765 mult_21/U376
*766 mult_21/U352
*767 mult_21/U328
*768 mult_21/U566
*769 mult_21/U520
*770 mult_21/U782
*771 mult_21/U758
*772 mult_21/U734
*773 mult_21/U710
*774 mult_21/U686
*775 mult_21/U662
*776 mult_21/U638
*777 mult_21/U614
*778 mult_21/U107
*779 mult_21/ab_0__16_
*780 mult_21/U794
*781 mult_21/U33
*782 mult_21/U11
*783 mult_21/n105
*784 mult_21/U302
*785 mult_21/U278
*786 mult_21/U254
*787 mult_21/U230
*788 mult_21/U494
*789 mult_21/U446
*790 mult_21/U422
*791 mult_21/U398
*792 mult_21/U374
*793 mult_21/U350
*794 mult_21/U326
*795 mult_21/U564
*796 mult_21/U518
*797 mult_21/U780
*798 mult_21/U756
*799 mult_21/U732
*800 mult_21/U708
*801 mult_21/U684
*802 mult_21/U660
*803 mult_21/U636
*804 mult_21/U612
*805 mult_21/U105
*806 mult_21/ab_0__17_
*807 mult_21/U793
*808 mult_21/U32
*809 mult_21/U10
*810 mult_21/n103
*811 mult_21/U323
*812 mult_21/U299
*813 mult_21/U275
*814 mult_21/U251
*815 mult_21/U515
*816 mult_21/U467
*817 mult_21/U443
*818 mult_21/U419
*819 mult_21/U395
*820 mult_21/U371
*821 mult_21/U347
*822 mult_21/U585
*823 mult_21/U538
*824 mult_21/U777
*825 mult_21/U753
*826 mult_21/U729
*827 mult_21/U705
*828 mult_21/U681
*829 mult_21/U657
*830 mult_21/U633
*831 mult_21/U103
*832 mult_21/ab_0__18_
*833 mult_21/U792
*834 mult_21/U31
*835 mult_21/U9
*836 mult_21/n101
*837 mult_21/U321
*838 mult_21/U297
*839 mult_21/U273
*840 mult_21/U249
*841 mult_21/U513
*842 mult_21/U465
*843 mult_21/U441
*844 mult_21/U417
*845 mult_21/U393
*846 mult_21/U369
*847 mult_21/U345
*848 mult_21/U583
*849 mult_21/U536
*850 mult_21/U775
*851 mult_21/U751
*852 mult_21/U727
*853 mult_21/U703
*854 mult_21/U679
*855 mult_21/U655
*856 mult_21/U631
*857 mult_21/U101
*858 mult_21/ab_0__19_
*859 mult_21/U791
*860 mult_21/U30
*861 mult_21/U8
*862 mult_21/n99
*863 mult_21/U319
*864 mult_21/U295
*865 mult_21/U271
*866 mult_21/U247
*867 mult_21/U511
*868 mult_21/U463
*869 mult_21/U439
*870 mult_21/U415
*871 mult_21/U391
*872 mult_21/U367
*873 mult_21/U343
*874 mult_21/U581
*875 mult_21/U534
*876 mult_21/U773
*877 mult_21/U749
*878 mult_21/U725
*879 mult_21/U701
*880 mult_21/U677
*881 mult_21/U653
*882 mult_21/U629
*883 mult_21/U99
*884 mult_21/ab_0__20_
*885 mult_21/U790
*886 mult_21/U29
*887 mult_21/U7
*888 mult_21/n97
*889 mult_21/U317
*890 mult_21/U293
*891 mult_21/U269
*892 mult_21/U245
*893 mult_21/U509
*894 mult_21/U461
*895 mult_21/U437
*896 mult_21/U413
*897 mult_21/U389
*898 mult_21/U365
*899 mult_21/U341
*900 mult_21/U579
*901 mult_21/U532
*902 mult_21/U771
*903 mult_21/U747
*904 mult_21/U723
*905 mult_21/U699
*906 mult_21/U675
*907 mult_21/U651
*908 mult_21/U627
*909 mult_21/U97
*910 mult_21/ab_0__21_
*911 mult_21/U789
*912 mult_21/U28
*913 mult_21/U6
*914 mult_21/n95
*915 mult_21/U315
*916 mult_21/U291
*917 mult_21/U267
*918 mult_21/U243
*919 mult_21/U507
*920 mult_21/U459
*921 mult_21/U435
*922 mult_21/U411
*923 mult_21/U387
*924 mult_21/U363
*925 mult_21/U339
*926 mult_21/U577
*927 mult_21/U530
*928 mult_21/U769
*929 mult_21/U745
*930 mult_21/U721
*931 mult_21/U697
*932 mult_21/U673
*933 mult_21/U649
*934 mult_21/U625
*935 mult_21/U90
*936 mult_21/ab_0__22_
*937 mult_21/U788
*938 mult_21/U27
*939 mult_21/U5
*940 mult_21/n93
*941 mult_21/U312
*942 mult_21/U288
*943 mult_21/U264
*944 mult_21/U240
*945 mult_21/U504
*946 mult_21/U456
*947 mult_21/U432
*948 mult_21/U408
*949 mult_21/U384
*950 mult_21/U360
*951 mult_21/U336
*952 mult_21/U574
*953 mult_21/U528
*954 mult_21/U766
*955 mult_21/U742
*956 mult_21/U718
*957 mult_21/U694
*958 mult_21/U670
*959 mult_21/U646
*960 mult_21/U622
*961 mult_21/U3
*962 mult_21/ab_0__23_
*963 mult_21/U787
*964 mult_21/U47
*965 mult_21/U26
*966 mult_21/n135
*967 mult_21/U523
*968 mult_21/U521
*969 mult_21/U519
*970 mult_21/U517
*971 mult_21/U531
*972 mult_21/U529
*973 mult_21/U527
*974 mult_21/U526
*975 mult_21/U525
*976 mult_21/U537
*977 mult_21/U535
*978 mult_21/U533
*979 mult_21/U135
*980 mult_21/ab_0__2_
*981 mult_21/n133
*982 mult_21/U388
*983 mult_21/U386
*984 mult_21/U385
*985 mult_21/U394
*986 mult_21/U392
*987 mult_21/U390
*988 mult_21/U375
*989 mult_21/U373
*990 mult_21/U383
*991 mult_21/U382
*992 mult_21/U381
*993 mult_21/U379
*994 mult_21/U377
*995 mult_21/U133
*996 mult_21/ab_0__3_
*997 mult_21/U785
*998 mult_21/U46
*999 mult_21/U24
*1000 mult_21/n131
*1001 mult_21/U340
*1002 mult_21/U338
*1003 mult_21/U337
*1004 mult_21/U346
*1005 mult_21/U344
*1006 mult_21/U342
*1007 mult_21/U327
*1008 mult_21/U325
*1009 mult_21/U335
*1010 mult_21/U334
*1011 mult_21/U333
*1012 mult_21/U331
*1013 mult_21/U329
*1014 mult_21/U131
*1015 mult_21/ab_0__4_
*1016 mult_21/U45
*1017 mult_21/U23
*1018 mult_21/n129
*1019 mult_21/U292
*1020 mult_21/U290
*1021 mult_21/U289
*1022 mult_21/U298
*1023 mult_21/U296
*1024 mult_21/U294
*1025 mult_21/U279
*1026 mult_21/U277
*1027 mult_21/U287
*1028 mult_21/U286
*1029 mult_21/U285
*1030 mult_21/U283
*1031 mult_21/U281
*1032 mult_21/U129
*1033 mult_21/ab_0__5_
*1034 mult_21/U783
*1035 mult_21/U44
*1036 mult_21/U22
*1037 mult_21/n127
*1038 mult_21/U244
*1039 mult_21/U242
*1040 mult_21/U241
*1041 mult_21/U250
*1042 mult_21/U248
*1043 mult_21/U246
*1044 mult_21/U231
*1045 mult_21/U229
*1046 mult_21/U239
*1047 mult_21/U238
*1048 mult_21/U237
*1049 mult_21/U235
*1050 mult_21/U233
*1051 mult_21/U127
*1052 mult_21/ab_0__6_
*1053 mult_21/U43
*1054 mult_21/U21
*1055 mult_21/n125
*1056 mult_21/U746
*1057 mult_21/U744
*1058 mult_21/U743
*1059 mult_21/U752
*1060 mult_21/U750
*1061 mult_21/U748
*1062 mult_21/U733
*1063 mult_21/U731
*1064 mult_21/U741
*1065 mult_21/U740
*1066 mult_21/U739
*1067 mult_21/U737
*1068 mult_21/U735
*1069 mult_21/U125
*1070 mult_21/ab_0__7_
*1071 mult_21/U781
*1072 mult_21/U42
*1073 mult_21/U20
*1074 mult_21/n123
*1075 mult_21/U698
*1076 mult_21/U696
*1077 mult_21/U695
*1078 mult_21/U704
*1079 mult_21/U702
*1080 mult_21/U700
*1081 mult_21/U685
*1082 mult_21/U683
*1083 mult_21/U693
*1084 mult_21/U692
*1085 mult_21/U691
*1086 mult_21/U689
*1087 mult_21/U687
*1088 mult_21/U123
*1089 mult_21/ab_0__8_
*1090 mult_21/U41
*1091 mult_21/U19
*1092 mult_21/n121
*1093 mult_21/U650
*1094 mult_21/U648
*1095 mult_21/U647
*1096 mult_21/U656
*1097 mult_21/U654
*1098 mult_21/U652
*1099 mult_21/U637
*1100 mult_21/U635
*1101 mult_21/U645
*1102 mult_21/U644
*1103 mult_21/U643
*1104 mult_21/U641
*1105 mult_21/U639
*1106 mult_21/U121
*1107 mult_21/ab_0__9_
*1108 mult_21/U779
*1109 mult_21/U40
*1110 mult_21/U18
*1111 n82
*1112 U60
*1113 U62
*1114 n83
*1115 regB_reg_12_
*1116 mult_21/ab_10__0_
*1117 mult_21/S1_10_0
*1118 mult_21/ab_10__10_
*1119 mult_21/S2_10_10
*1120 mult_21/ab_10__11_
*1121 mult_21/U776
*1122 mult_21/S2_10_11
*1123 mult_21/ab_10__12_
*1124 mult_21/S2_10_12
*1125 mult_21/ab_10__13_
*1126 mult_21/U774
*1127 mult_21/S2_10_13
*1128 mult_21/ab_10__14_
*1129 mult_21/S2_10_14
*1130 mult_21/ab_10__15_
*1131 mult_21/U772
*1132 mult_21/S2_10_15
*1133 mult_21/ab_10__16_
*1134 mult_21/S2_10_16
*1135 mult_21/ab_10__17_
*1136 mult_21/U770
*1137 mult_21/S2_10_17
*1138 mult_21/ab_10__18_
*1139 mult_21/S2_10_18
*1140 mult_21/ab_10__19_
*1141 mult_21/U768
*1142 mult_21/S2_10_19
*1143 mult_21/ab_10__1_
*1144 mult_21/U767
*1145 mult_21/S2_10_1
*1146 n84
*1147 U64
*1148 mult_21/ab_10__20_
*1149 mult_21/S2_10_20
*1150 mult_21/ab_10__21_
*1151 mult_21/U765
*1152 mult_21/S2_10_21
*1153 mult_21/ab_10__22_
*1154 mult_21/U764
*1155 mult_21/S3_10_22
*1156 mult_21/ab_10__23_
*1157 mult_21/U763
*1158 mult_21/S3_11_22
*1159 mult_21/ab_10__2_
*1160 mult_21/S2_10_2
*1161 mult_21/ab_10__3_
*1162 mult_21/U761
*1163 mult_21/S2_10_3
*1164 mult_21/ab_10__4_
*1165 mult_21/S2_10_4
*1166 mult_21/ab_10__5_
*1167 mult_21/U759
*1168 mult_21/S2_10_5
*1169 mult_21/ab_10__6_
*1170 mult_21/S2_10_6
*1171 mult_21/ab_10__7_
*1172 mult_21/U757
*1173 mult_21/S2_10_7
*1174 mult_21/ab_10__8_
*1175 mult_21/S2_10_8
*1176 mult_21/ab_10__9_
*1177 mult_21/U755
*1178 mult_21/S2_10_9
*1179 n79
*1180 regB_reg_14_
*1181 U59
*1182 mult_21/ab_11__0_
*1183 mult_21/S1_11_0
*1184 mult_21/ab_11__10_
*1185 mult_21/S2_11_10
*1186 mult_21/ab_11__11_
*1187 mult_21/S2_11_11
*1188 mult_21/ab_11__12_
*1189 mult_21/S2_11_12
*1190 mult_21/ab_11__13_
*1191 mult_21/S2_11_13
*1192 mult_21/ab_11__14_
*1193 mult_21/S2_11_14
*1194 mult_21/ab_11__15_
*1195 mult_21/S2_11_15
*1196 mult_21/ab_11__16_
*1197 mult_21/S2_11_16
*1198 mult_21/ab_11__17_
*1199 mult_21/S2_11_17
*1200 mult_21/ab_11__18_
*1201 mult_21/S2_11_18
*1202 mult_21/ab_11__19_
*1203 mult_21/S2_11_19
*1204 mult_21/ab_11__1_
*1205 mult_21/S2_11_1
*1206 n80
*1207 regB_reg_13_
*1208 mult_21/ab_11__20_
*1209 mult_21/S2_11_20
*1210 mult_21/ab_11__21_
*1211 mult_21/S2_11_21
*1212 mult_21/ab_11__22_
*1213 mult_21/ab_11__23_
*1214 mult_21/S3_12_22
*1215 mult_21/ab_11__2_
*1216 mult_21/S2_11_2
*1217 mult_21/ab_11__3_
*1218 mult_21/S2_11_3
*1219 mult_21/ab_11__4_
*1220 mult_21/S2_11_4
*1221 mult_21/ab_11__5_
*1222 mult_21/S2_11_5
*1223 mult_21/ab_11__6_
*1224 mult_21/S2_11_6
*1225 mult_21/ab_11__7_
*1226 mult_21/S2_11_7
*1227 mult_21/ab_11__8_
*1228 mult_21/S2_11_8
*1229 mult_21/ab_11__9_
*1230 mult_21/S2_11_9
*1231 n81
*1232 U61
*1233 mult_21/ab_12__0_
*1234 mult_21/S1_12_0
*1235 mult_21/ab_12__10_
*1236 mult_21/S2_12_10
*1237 mult_21/ab_12__11_
*1238 mult_21/U728
*1239 mult_21/S2_12_11
*1240 mult_21/ab_12__12_
*1241 mult_21/S2_12_12
*1242 mult_21/ab_12__13_
*1243 mult_21/U726
*1244 mult_21/S2_12_13
*1245 mult_21/ab_12__14_
*1246 mult_21/S2_12_14
*1247 mult_21/ab_12__15_
*1248 mult_21/U724
*1249 mult_21/S2_12_15
*1250 mult_21/ab_12__16_
*1251 mult_21/S2_12_16
*1252 mult_21/ab_12__17_
*1253 mult_21/U722
*1254 mult_21/S2_12_17
*1255 mult_21/ab_12__18_
*1256 mult_21/S2_12_18
*1257 mult_21/ab_12__19_
*1258 mult_21/U720
*1259 mult_21/S2_12_19
*1260 mult_21/ab_12__1_
*1261 mult_21/U719
*1262 mult_21/S2_12_1
*1263 n76
*1264 regB_reg_15_
*1265 U56
*1266 mult_21/ab_12__20_
*1267 mult_21/S2_12_20
*1268 mult_21/ab_12__21_
*1269 mult_21/U717
*1270 mult_21/S2_12_21
*1271 mult_21/ab_12__22_
*1272 mult_21/U716
*1273 mult_21/ab_12__23_
*1274 mult_21/U715
*1275 mult_21/S3_13_22
*1276 mult_21/ab_12__2_
*1277 mult_21/S2_12_2
*1278 mult_21/ab_12__3_
*1279 mult_21/U713
*1280 mult_21/S2_12_3
*1281 mult_21/ab_12__4_
*1282 mult_21/S2_12_4
*1283 mult_21/ab_12__5_
*1284 mult_21/U711
*1285 mult_21/S2_12_5
*1286 mult_21/ab_12__6_
*1287 mult_21/S2_12_6
*1288 mult_21/ab_12__7_
*1289 mult_21/U709
*1290 mult_21/S2_12_7
*1291 mult_21/ab_12__8_
*1292 mult_21/S2_12_8
*1293 mult_21/ab_12__9_
*1294 mult_21/U707
*1295 mult_21/S2_12_9
*1296 n77
*1297 U57
*1298 mult_21/ab_13__0_
*1299 mult_21/S1_13_0
*1300 mult_21/ab_13__10_
*1301 mult_21/S2_13_10
*1302 mult_21/ab_13__11_
*1303 mult_21/S2_13_11
*1304 mult_21/ab_13__12_
*1305 mult_21/S2_13_12
*1306 mult_21/ab_13__13_
*1307 mult_21/S2_13_13
*1308 mult_21/ab_13__14_
*1309 mult_21/S2_13_14
*1310 mult_21/ab_13__15_
*1311 mult_21/S2_13_15
*1312 mult_21/ab_13__16_
*1313 mult_21/S2_13_16
*1314 mult_21/ab_13__17_
*1315 mult_21/S2_13_17
*1316 mult_21/ab_13__18_
*1317 mult_21/S2_13_18
*1318 mult_21/ab_13__19_
*1319 mult_21/S2_13_19
*1320 mult_21/ab_13__1_
*1321 mult_21/S2_13_1
*1322 n78
*1323 U58
*1324 mult_21/ab_13__20_
*1325 mult_21/S2_13_20
*1326 mult_21/ab_13__21_
*1327 mult_21/S2_13_21
*1328 mult_21/ab_13__22_
*1329 mult_21/ab_13__23_
*1330 mult_21/S3_14_22
*1331 mult_21/ab_13__2_
*1332 mult_21/S2_13_2
*1333 mult_21/ab_13__3_
*1334 mult_21/S2_13_3
*1335 mult_21/ab_13__4_
*1336 mult_21/S2_13_4
*1337 mult_21/ab_13__5_
*1338 mult_21/S2_13_5
*1339 mult_21/ab_13__6_
*1340 mult_21/S2_13_6
*1341 mult_21/ab_13__7_
*1342 mult_21/S2_13_7
*1343 mult_21/ab_13__8_
*1344 mult_21/S2_13_8
*1345 mult_21/ab_13__9_
*1346 mult_21/S2_13_9
*1347 n73
*1348 regB_reg_16_
*1349 U53
*1350 mult_21/ab_14__0_
*1351 mult_21/S1_14_0
*1352 mult_21/ab_14__10_
*1353 mult_21/S2_14_10
*1354 mult_21/ab_14__11_
*1355 mult_21/U680
*1356 mult_21/S2_14_11
*1357 mult_21/ab_14__12_
*1358 mult_21/S2_14_12
*1359 mult_21/ab_14__13_
*1360 mult_21/U678
*1361 mult_21/S2_14_13
*1362 mult_21/ab_14__14_
*1363 mult_21/S2_14_14
*1364 mult_21/ab_14__15_
*1365 mult_21/U676
*1366 mult_21/S2_14_15
*1367 mult_21/ab_14__16_
*1368 mult_21/S2_14_16
*1369 mult_21/ab_14__17_
*1370 mult_21/U674
*1371 mult_21/S2_14_17
*1372 mult_21/ab_14__18_
*1373 mult_21/S2_14_18
*1374 mult_21/ab_14__19_
*1375 mult_21/U672
*1376 mult_21/S2_14_19
*1377 mult_21/ab_14__1_
*1378 mult_21/U671
*1379 mult_21/S2_14_1
*1380 n74
*1381 U54
*1382 mult_21/ab_14__20_
*1383 mult_21/S2_14_20
*1384 mult_21/ab_14__21_
*1385 mult_21/U669
*1386 mult_21/S2_14_21
*1387 mult_21/ab_14__22_
*1388 mult_21/U668
*1389 mult_21/ab_14__23_
*1390 mult_21/U667
*1391 mult_21/S3_15_22
*1392 mult_21/ab_14__2_
*1393 mult_21/S2_14_2
*1394 mult_21/ab_14__3_
*1395 mult_21/U665
*1396 mult_21/S2_14_3
*1397 mult_21/ab_14__4_
*1398 mult_21/S2_14_4
*1399 mult_21/ab_14__5_
*1400 mult_21/U663
*1401 mult_21/S2_14_5
*1402 mult_21/ab_14__6_
*1403 mult_21/S2_14_6
*1404 mult_21/ab_14__7_
*1405 mult_21/U661
*1406 mult_21/S2_14_7
*1407 mult_21/ab_14__8_
*1408 mult_21/S2_14_8
*1409 mult_21/ab_14__9_
*1410 mult_21/U659
*1411 mult_21/S2_14_9
*1412 n75
*1413 U55
*1414 mult_21/ab_15__0_
*1415 mult_21/S1_15_0
*1416 mult_21/ab_15__10_
*1417 mult_21/S2_15_10
*1418 mult_21/ab_15__11_
*1419 mult_21/S2_15_11
*1420 mult_21/ab_15__12_
*1421 mult_21/S2_15_12
*1422 mult_21/ab_15__13_
*1423 mult_21/S2_15_13
*1424 mult_21/ab_15__14_
*1425 mult_21/S2_15_14
*1426 mult_21/ab_15__15_
*1427 mult_21/S2_15_15
*1428 mult_21/ab_15__16_
*1429 mult_21/S2_15_16
*1430 mult_21/ab_15__17_
*1431 mult_21/S2_15_17
*1432 mult_21/ab_15__18_
*1433 mult_21/S2_15_18
*1434 mult_21/ab_15__19_
*1435 mult_21/S2_15_19
*1436 mult_21/ab_15__1_
*1437 mult_21/S2_15_1
*1438 n70
*1439 U48
*1440 U50
*1441 mult_21/ab_15__20_
*1442 mult_21/S2_15_20
*1443 mult_21/ab_15__21_
*1444 mult_21/S2_15_21
*1445 mult_21/ab_15__22_
*1446 mult_21/ab_15__23_
*1447 mult_21/S3_16_22
*1448 mult_21/ab_15__2_
*1449 mult_21/S2_15_2
*1450 mult_21/ab_15__3_
*1451 mult_21/S2_15_3
*1452 mult_21/ab_15__4_
*1453 mult_21/S2_15_4
*1454 mult_21/ab_15__5_
*1455 mult_21/S2_15_5
*1456 mult_21/ab_15__6_
*1457 mult_21/S2_15_6
*1458 mult_21/ab_15__7_
*1459 mult_21/S2_15_7
*1460 mult_21/ab_15__8_
*1461 mult_21/S2_15_8
*1462 mult_21/ab_15__9_
*1463 mult_21/S2_15_9
*1464 n71
*1465 U51
*1466 mult_21/ab_16__0_
*1467 mult_21/S1_16_0
*1468 mult_21/ab_16__10_
*1469 mult_21/S2_16_10
*1470 mult_21/ab_16__11_
*1471 mult_21/U632
*1472 mult_21/S2_16_11
*1473 mult_21/ab_16__12_
*1474 mult_21/S2_16_12
*1475 mult_21/ab_16__13_
*1476 mult_21/U630
*1477 mult_21/S2_16_13
*1478 mult_21/ab_16__14_
*1479 mult_21/S2_16_14
*1480 mult_21/ab_16__15_
*1481 mult_21/U628
*1482 mult_21/S2_16_15
*1483 mult_21/ab_16__16_
*1484 mult_21/S2_16_16
*1485 mult_21/ab_16__17_
*1486 mult_21/U626
*1487 mult_21/S2_16_17
*1488 mult_21/ab_16__18_
*1489 mult_21/S2_16_18
*1490 mult_21/ab_16__19_
*1491 mult_21/U624
*1492 mult_21/S2_16_19
*1493 mult_21/ab_16__1_
*1494 mult_21/U623
*1495 mult_21/S2_16_1
*1496 n72
*1497 U52
*1498 mult_21/ab_16__20_
*1499 mult_21/S2_16_20
*1500 mult_21/ab_16__21_
*1501 mult_21/U621
*1502 mult_21/S2_16_21
*1503 mult_21/ab_16__22_
*1504 mult_21/U620
*1505 mult_21/ab_16__23_
*1506 mult_21/U619
*1507 mult_21/S3_17_22
*1508 mult_21/ab_16__2_
*1509 mult_21/S2_16_2
*1510 mult_21/ab_16__3_
*1511 mult_21/U617
*1512 mult_21/S2_16_3
*1513 mult_21/ab_16__4_
*1514 mult_21/S2_16_4
*1515 mult_21/ab_16__5_
*1516 mult_21/U615
*1517 mult_21/S2_16_5